
---------- Begin Simulation Statistics ----------
final_tick                                  630608000                       # Number of ticks from beginning of simulation (restored from checkpoints and never reset)
host_inst_rate                                 124550                       # Simulator instruction rate (inst/s)
host_mem_usage                                 678356                       # Number of bytes of host memory used
host_op_rate                                   141936                       # Simulator op (including micro ops) rate (op/s)
host_seconds                                     0.07                       # Real time elapsed on the host
host_tick_rate                             9310532788                       # Simulator tick rate (ticks/s)
sim_freq                                 1000000000000                       # Frequency of simulated ticks
sim_insts                                        8415                       # Number of instructions simulated
sim_ops                                          9611                       # Number of ops (including micro ops) simulated
sim_seconds                                  0.000631                       # Number of seconds simulated
sim_ticks                                   630608000                       # Number of ticks simulated
system.cpu.committedInsts                        8415                       # Number of instructions committed
system.cpu.committedOps                          9611                       # Number of ops (including micro ops) committed
system.cpu.cpi                             149.877124                       # CPI: cycles per instruction
system.cpu.discardedOps                          1873                       # Number of ops (including micro ops) which were discarded before commit
system.cpu.idleCycles                         1241249                       # Total number of cycles that the object has spent stopped
system.cpu.ipc                               0.006672                       # IPC: instructions per cycle
system.cpu.numCycles                          1261216                       # number of cpu cycles simulated
system.cpu.numFetchSuspends                         0                       # Number of times Execute suspended instruction fetching
system.cpu.numWorkItemsCompleted                    0                       # number of work items this cpu completed
system.cpu.numWorkItemsStarted                      0                       # number of work items this cpu started
system.cpu.op_class_0::No_OpClass                   0      0.00%      0.00% # Class of committed instruction
system.cpu.op_class_0::IntAlu                    6692     69.63%     69.63% # Class of committed instruction
system.cpu.op_class_0::IntMult                     49      0.51%     70.14% # Class of committed instruction
system.cpu.op_class_0::IntDiv                       0      0.00%     70.14% # Class of committed instruction
system.cpu.op_class_0::FloatAdd                     0      0.00%     70.14% # Class of committed instruction
system.cpu.op_class_0::FloatCmp                     0      0.00%     70.14% # Class of committed instruction
system.cpu.op_class_0::FloatCvt                     0      0.00%     70.14% # Class of committed instruction
system.cpu.op_class_0::FloatMult                    0      0.00%     70.14% # Class of committed instruction
system.cpu.op_class_0::FloatMultAcc                 0      0.00%     70.14% # Class of committed instruction
system.cpu.op_class_0::FloatDiv                     0      0.00%     70.14% # Class of committed instruction
system.cpu.op_class_0::FloatMisc                    0      0.00%     70.14% # Class of committed instruction
system.cpu.op_class_0::FloatSqrt                    0      0.00%     70.14% # Class of committed instruction
system.cpu.op_class_0::SimdAdd                      0      0.00%     70.14% # Class of committed instruction
system.cpu.op_class_0::SimdAddAcc                   0      0.00%     70.14% # Class of committed instruction
system.cpu.op_class_0::SimdAlu                      0      0.00%     70.14% # Class of committed instruction
system.cpu.op_class_0::SimdCmp                      0      0.00%     70.14% # Class of committed instruction
system.cpu.op_class_0::SimdCvt                      0      0.00%     70.14% # Class of committed instruction
system.cpu.op_class_0::SimdMisc                     0      0.00%     70.14% # Class of committed instruction
system.cpu.op_class_0::SimdMult                     0      0.00%     70.14% # Class of committed instruction
system.cpu.op_class_0::SimdMultAcc                  0      0.00%     70.14% # Class of committed instruction
system.cpu.op_class_0::SimdShift                    0      0.00%     70.14% # Class of committed instruction
system.cpu.op_class_0::SimdShiftAcc                 0      0.00%     70.14% # Class of committed instruction
system.cpu.op_class_0::SimdDiv                      0      0.00%     70.14% # Class of committed instruction
system.cpu.op_class_0::SimdSqrt                     0      0.00%     70.14% # Class of committed instruction
system.cpu.op_class_0::SimdFloatAdd                 0      0.00%     70.14% # Class of committed instruction
system.cpu.op_class_0::SimdFloatAlu                 0      0.00%     70.14% # Class of committed instruction
system.cpu.op_class_0::SimdFloatCmp                 0      0.00%     70.14% # Class of committed instruction
system.cpu.op_class_0::SimdFloatCvt                 0      0.00%     70.14% # Class of committed instruction
system.cpu.op_class_0::SimdFloatDiv                 0      0.00%     70.14% # Class of committed instruction
system.cpu.op_class_0::SimdFloatMisc                0      0.00%     70.14% # Class of committed instruction
system.cpu.op_class_0::SimdFloatMult                0      0.00%     70.14% # Class of committed instruction
system.cpu.op_class_0::SimdFloatMultAcc             0      0.00%     70.14% # Class of committed instruction
system.cpu.op_class_0::SimdFloatSqrt                0      0.00%     70.14% # Class of committed instruction
system.cpu.op_class_0::SimdReduceAdd                0      0.00%     70.14% # Class of committed instruction
system.cpu.op_class_0::SimdReduceAlu                0      0.00%     70.14% # Class of committed instruction
system.cpu.op_class_0::SimdReduceCmp                0      0.00%     70.14% # Class of committed instruction
system.cpu.op_class_0::SimdFloatReduceAdd            0      0.00%     70.14% # Class of committed instruction
system.cpu.op_class_0::SimdFloatReduceCmp            0      0.00%     70.14% # Class of committed instruction
system.cpu.op_class_0::SimdAes                      0      0.00%     70.14% # Class of committed instruction
system.cpu.op_class_0::SimdAesMix                   0      0.00%     70.14% # Class of committed instruction
system.cpu.op_class_0::SimdSha1Hash                 0      0.00%     70.14% # Class of committed instruction
system.cpu.op_class_0::SimdSha1Hash2                0      0.00%     70.14% # Class of committed instruction
system.cpu.op_class_0::SimdSha256Hash               0      0.00%     70.14% # Class of committed instruction
system.cpu.op_class_0::SimdSha256Hash2              0      0.00%     70.14% # Class of committed instruction
system.cpu.op_class_0::SimdShaSigma2                0      0.00%     70.14% # Class of committed instruction
system.cpu.op_class_0::SimdShaSigma3                0      0.00%     70.14% # Class of committed instruction
system.cpu.op_class_0::SimdPredAlu                  0      0.00%     70.14% # Class of committed instruction
system.cpu.op_class_0::MemRead                   1315     13.68%     83.82% # Class of committed instruction
system.cpu.op_class_0::MemWrite                  1555     16.18%    100.00% # Class of committed instruction
system.cpu.op_class_0::FloatMemRead                 0      0.00%    100.00% # Class of committed instruction
system.cpu.op_class_0::FloatMemWrite                0      0.00%    100.00% # Class of committed instruction
system.cpu.op_class_0::IprAccess                    0      0.00%    100.00% # Class of committed instruction
system.cpu.op_class_0::InstPrefetch                 0      0.00%    100.00% # Class of committed instruction
system.cpu.op_class_0::total                     9611                       # Class of committed instruction
system.cpu.tickCycles                           19967                       # Number of cycles that the object actually ticked
system.cpu.workload.numSyscalls                    10                       # Number of system calls
system.membus.snoop_filter.hit_multi_requests            3                       # Number of requests hitting in the snoop filter with multiple (>1) holders of the requested data.
system.membus.snoop_filter.hit_multi_snoops            0                       # Number of snoops hitting in the snoop filter with multiple (>1) holders of the requested data.
system.membus.snoop_filter.hit_single_requests           77                       # Number of requests hitting in the snoop filter with a single holder of the requested data.
system.membus.snoop_filter.hit_single_snoops            0                       # Number of snoops hitting in the snoop filter with a single holder of the requested data.
system.membus.snoop_filter.tot_requests           618                       # Total number of requests made to the snoop filter.
system.membus.snoop_filter.tot_snoops               0                       # Total number of snoops made to the snoop filter.
system.clk_domain.clock                        100000                       # Clock period in ticks
system.cpu.branchPred.lookups                    2974                       # Number of BP lookups
system.cpu.branchPred.condPredicted              1959                       # Number of conditional branches predicted
system.cpu.branchPred.condIncorrect               557                       # Number of conditional branches incorrect
system.cpu.branchPred.BTBLookups                 1430                       # Number of BTB lookups
system.cpu.branchPred.BTBHits                     557                       # Number of BTB hits
system.cpu.branchPred.BTBHitPct             38.951049                       # BTB Hit Percentage
system.cpu.branchPred.RASUsed                     250                       # Number of times the RAS was used to get a target.
system.cpu.branchPred.RASIncorrect                  2                       # Number of incorrect RAS predictions.
system.cpu.branchPred.indirectLookups             140                       # Number of indirect predictor lookups.
system.cpu.branchPred.indirectHits                 16                       # Number of indirect target hits.
system.cpu.branchPred.indirectMisses              124                       # Number of indirect misses.
system.cpu.branchPred.indirectMispredicted           61                       # Number of mispredicted indirect branches.
system.cpu.dcache.demand_hits::.cpu.data         2834                       # number of demand (read+write) hits
system.cpu.dcache.demand_hits::total             2834                       # number of demand (read+write) hits
system.cpu.dcache.overall_hits::.cpu.data         2853                       # number of overall hits
system.cpu.dcache.overall_hits::total            2853                       # number of overall hits
system.cpu.dcache.demand_misses::.cpu.data          214                       # number of demand (read+write) misses
system.cpu.dcache.demand_misses::total            214                       # number of demand (read+write) misses
system.cpu.dcache.overall_misses::.cpu.data          225                       # number of overall misses
system.cpu.dcache.overall_misses::total           225                       # number of overall misses
system.cpu.dcache.demand_miss_latency::.cpu.data    277731000                       # number of demand (read+write) miss cycles
system.cpu.dcache.demand_miss_latency::total    277731000                       # number of demand (read+write) miss cycles
system.cpu.dcache.overall_miss_latency::.cpu.data    277731000                       # number of overall miss cycles
system.cpu.dcache.overall_miss_latency::total    277731000                       # number of overall miss cycles
system.cpu.dcache.demand_accesses::.cpu.data         3048                       # number of demand (read+write) accesses
system.cpu.dcache.demand_accesses::total         3048                       # number of demand (read+write) accesses
system.cpu.dcache.overall_accesses::.cpu.data         3078                       # number of overall (read+write) accesses
system.cpu.dcache.overall_accesses::total         3078                       # number of overall (read+write) accesses
system.cpu.dcache.demand_miss_rate::.cpu.data     0.070210                       # miss rate for demand accesses
system.cpu.dcache.demand_miss_rate::total     0.070210                       # miss rate for demand accesses
system.cpu.dcache.overall_miss_rate::.cpu.data     0.073099                       # miss rate for overall accesses
system.cpu.dcache.overall_miss_rate::total     0.073099                       # miss rate for overall accesses
system.cpu.dcache.demand_avg_miss_latency::.cpu.data 1297808.411215                       # average overall miss latency
system.cpu.dcache.demand_avg_miss_latency::total 1297808.411215                       # average overall miss latency
system.cpu.dcache.overall_avg_miss_latency::.cpu.data      1234360                       # average overall miss latency
system.cpu.dcache.overall_avg_miss_latency::total      1234360                       # average overall miss latency
system.cpu.dcache.blocked_cycles::no_mshrs            0                       # number of cycles access was blocked
system.cpu.dcache.blocked_cycles::no_targets            0                       # number of cycles access was blocked
system.cpu.dcache.blocked::no_mshrs                 0                       # number of cycles access was blocked
system.cpu.dcache.blocked::no_targets               0                       # number of cycles access was blocked
system.cpu.dcache.avg_blocked_cycles::no_mshrs          nan                       # average number of cycles each access was blocked
system.cpu.dcache.avg_blocked_cycles::no_targets          nan                       # average number of cycles each access was blocked
system.cpu.dcache.demand_mshr_hits::.cpu.data           54                       # number of demand (read+write) MSHR hits
system.cpu.dcache.demand_mshr_hits::total           54                       # number of demand (read+write) MSHR hits
system.cpu.dcache.overall_mshr_hits::.cpu.data           54                       # number of overall MSHR hits
system.cpu.dcache.overall_mshr_hits::total           54                       # number of overall MSHR hits
system.cpu.dcache.demand_mshr_misses::.cpu.data          160                       # number of demand (read+write) MSHR misses
system.cpu.dcache.demand_mshr_misses::total          160                       # number of demand (read+write) MSHR misses
system.cpu.dcache.overall_mshr_misses::.cpu.data          168                       # number of overall MSHR misses
system.cpu.dcache.overall_mshr_misses::total          168                       # number of overall MSHR misses
system.cpu.dcache.demand_mshr_miss_latency::.cpu.data    202902000                       # number of demand (read+write) MSHR miss cycles
system.cpu.dcache.demand_mshr_miss_latency::total    202902000                       # number of demand (read+write) MSHR miss cycles
system.cpu.dcache.overall_mshr_miss_latency::.cpu.data    212556000                       # number of overall MSHR miss cycles
system.cpu.dcache.overall_mshr_miss_latency::total    212556000                       # number of overall MSHR miss cycles
system.cpu.dcache.demand_mshr_miss_rate::.cpu.data     0.052493                       # mshr miss rate for demand accesses
system.cpu.dcache.demand_mshr_miss_rate::total     0.052493                       # mshr miss rate for demand accesses
system.cpu.dcache.overall_mshr_miss_rate::.cpu.data     0.054581                       # mshr miss rate for overall accesses
system.cpu.dcache.overall_mshr_miss_rate::total     0.054581                       # mshr miss rate for overall accesses
system.cpu.dcache.demand_avg_mshr_miss_latency::.cpu.data 1268137.500000                       # average overall mshr miss latency
system.cpu.dcache.demand_avg_mshr_miss_latency::total 1268137.500000                       # average overall mshr miss latency
system.cpu.dcache.overall_avg_mshr_miss_latency::.cpu.data 1265214.285714                       # average overall mshr miss latency
system.cpu.dcache.overall_avg_mshr_miss_latency::total 1265214.285714                       # average overall mshr miss latency
system.cpu.dcache.replacements                      0                       # number of replacements
system.cpu.dcache.ReadReq_hits::.cpu.data         1462                       # number of ReadReq hits
system.cpu.dcache.ReadReq_hits::total            1462                       # number of ReadReq hits
system.cpu.dcache.ReadReq_misses::.cpu.data           98                       # number of ReadReq misses
system.cpu.dcache.ReadReq_misses::total            98                       # number of ReadReq misses
system.cpu.dcache.ReadReq_miss_latency::.cpu.data    126260000                       # number of ReadReq miss cycles
system.cpu.dcache.ReadReq_miss_latency::total    126260000                       # number of ReadReq miss cycles
system.cpu.dcache.ReadReq_accesses::.cpu.data         1560                       # number of ReadReq accesses(hits+misses)
system.cpu.dcache.ReadReq_accesses::total         1560                       # number of ReadReq accesses(hits+misses)
system.cpu.dcache.ReadReq_miss_rate::.cpu.data     0.062821                       # miss rate for ReadReq accesses
system.cpu.dcache.ReadReq_miss_rate::total     0.062821                       # miss rate for ReadReq accesses
system.cpu.dcache.ReadReq_avg_miss_latency::.cpu.data 1288367.346939                       # average ReadReq miss latency
system.cpu.dcache.ReadReq_avg_miss_latency::total 1288367.346939                       # average ReadReq miss latency
system.cpu.dcache.ReadReq_mshr_hits::.cpu.data            6                       # number of ReadReq MSHR hits
system.cpu.dcache.ReadReq_mshr_hits::total            6                       # number of ReadReq MSHR hits
system.cpu.dcache.ReadReq_mshr_misses::.cpu.data           92                       # number of ReadReq MSHR misses
system.cpu.dcache.ReadReq_mshr_misses::total           92                       # number of ReadReq MSHR misses
system.cpu.dcache.ReadReq_mshr_miss_latency::.cpu.data    116579000                       # number of ReadReq MSHR miss cycles
system.cpu.dcache.ReadReq_mshr_miss_latency::total    116579000                       # number of ReadReq MSHR miss cycles
system.cpu.dcache.ReadReq_mshr_miss_rate::.cpu.data     0.058974                       # mshr miss rate for ReadReq accesses
system.cpu.dcache.ReadReq_mshr_miss_rate::total     0.058974                       # mshr miss rate for ReadReq accesses
system.cpu.dcache.ReadReq_avg_mshr_miss_latency::.cpu.data 1267163.043478                       # average ReadReq mshr miss latency
system.cpu.dcache.ReadReq_avg_mshr_miss_latency::total 1267163.043478                       # average ReadReq mshr miss latency
system.cpu.dcache.WriteReq_hits::.cpu.data         1372                       # number of WriteReq hits
system.cpu.dcache.WriteReq_hits::total           1372                       # number of WriteReq hits
system.cpu.dcache.WriteReq_misses::.cpu.data          116                       # number of WriteReq misses
system.cpu.dcache.WriteReq_misses::total          116                       # number of WriteReq misses
system.cpu.dcache.WriteReq_miss_latency::.cpu.data    151471000                       # number of WriteReq miss cycles
system.cpu.dcache.WriteReq_miss_latency::total    151471000                       # number of WriteReq miss cycles
system.cpu.dcache.WriteReq_accesses::.cpu.data         1488                       # number of WriteReq accesses(hits+misses)
system.cpu.dcache.WriteReq_accesses::total         1488                       # number of WriteReq accesses(hits+misses)
system.cpu.dcache.WriteReq_miss_rate::.cpu.data     0.077957                       # miss rate for WriteReq accesses
system.cpu.dcache.WriteReq_miss_rate::total     0.077957                       # miss rate for WriteReq accesses
system.cpu.dcache.WriteReq_avg_miss_latency::.cpu.data 1305784.482759                       # average WriteReq miss latency
system.cpu.dcache.WriteReq_avg_miss_latency::total 1305784.482759                       # average WriteReq miss latency
system.cpu.dcache.WriteReq_mshr_hits::.cpu.data           48                       # number of WriteReq MSHR hits
system.cpu.dcache.WriteReq_mshr_hits::total           48                       # number of WriteReq MSHR hits
system.cpu.dcache.WriteReq_mshr_misses::.cpu.data           68                       # number of WriteReq MSHR misses
system.cpu.dcache.WriteReq_mshr_misses::total           68                       # number of WriteReq MSHR misses
system.cpu.dcache.WriteReq_mshr_miss_latency::.cpu.data     86323000                       # number of WriteReq MSHR miss cycles
system.cpu.dcache.WriteReq_mshr_miss_latency::total     86323000                       # number of WriteReq MSHR miss cycles
system.cpu.dcache.WriteReq_mshr_miss_rate::.cpu.data     0.045699                       # mshr miss rate for WriteReq accesses
system.cpu.dcache.WriteReq_mshr_miss_rate::total     0.045699                       # mshr miss rate for WriteReq accesses
system.cpu.dcache.WriteReq_avg_mshr_miss_latency::.cpu.data 1269455.882353                       # average WriteReq mshr miss latency
system.cpu.dcache.WriteReq_avg_mshr_miss_latency::total 1269455.882353                       # average WriteReq mshr miss latency
system.cpu.dcache.SoftPFReq_hits::.cpu.data           19                       # number of SoftPFReq hits
system.cpu.dcache.SoftPFReq_hits::total            19                       # number of SoftPFReq hits
system.cpu.dcache.SoftPFReq_misses::.cpu.data           11                       # number of SoftPFReq misses
system.cpu.dcache.SoftPFReq_misses::total           11                       # number of SoftPFReq misses
system.cpu.dcache.SoftPFReq_accesses::.cpu.data           30                       # number of SoftPFReq accesses(hits+misses)
system.cpu.dcache.SoftPFReq_accesses::total           30                       # number of SoftPFReq accesses(hits+misses)
system.cpu.dcache.SoftPFReq_miss_rate::.cpu.data     0.366667                       # miss rate for SoftPFReq accesses
system.cpu.dcache.SoftPFReq_miss_rate::total     0.366667                       # miss rate for SoftPFReq accesses
system.cpu.dcache.SoftPFReq_mshr_misses::.cpu.data            8                       # number of SoftPFReq MSHR misses
system.cpu.dcache.SoftPFReq_mshr_misses::total            8                       # number of SoftPFReq MSHR misses
system.cpu.dcache.SoftPFReq_mshr_miss_latency::.cpu.data      9654000                       # number of SoftPFReq MSHR miss cycles
system.cpu.dcache.SoftPFReq_mshr_miss_latency::total      9654000                       # number of SoftPFReq MSHR miss cycles
system.cpu.dcache.SoftPFReq_mshr_miss_rate::.cpu.data     0.266667                       # mshr miss rate for SoftPFReq accesses
system.cpu.dcache.SoftPFReq_mshr_miss_rate::total     0.266667                       # mshr miss rate for SoftPFReq accesses
system.cpu.dcache.SoftPFReq_avg_mshr_miss_latency::.cpu.data      1206750                       # average SoftPFReq mshr miss latency
system.cpu.dcache.SoftPFReq_avg_mshr_miss_latency::total      1206750                       # average SoftPFReq mshr miss latency
system.cpu.dcache.LoadLockedReq_hits::.cpu.data           17                       # number of LoadLockedReq hits
system.cpu.dcache.LoadLockedReq_hits::total           17                       # number of LoadLockedReq hits
system.cpu.dcache.LoadLockedReq_misses::.cpu.data            1                       # number of LoadLockedReq misses
system.cpu.dcache.LoadLockedReq_misses::total            1                       # number of LoadLockedReq misses
system.cpu.dcache.LoadLockedReq_miss_latency::.cpu.data      1192500                       # number of LoadLockedReq miss cycles
system.cpu.dcache.LoadLockedReq_miss_latency::total      1192500                       # number of LoadLockedReq miss cycles
system.cpu.dcache.LoadLockedReq_accesses::.cpu.data           18                       # number of LoadLockedReq accesses(hits+misses)
system.cpu.dcache.LoadLockedReq_accesses::total           18                       # number of LoadLockedReq accesses(hits+misses)
system.cpu.dcache.LoadLockedReq_miss_rate::.cpu.data     0.055556                       # miss rate for LoadLockedReq accesses
system.cpu.dcache.LoadLockedReq_miss_rate::total     0.055556                       # miss rate for LoadLockedReq accesses
system.cpu.dcache.LoadLockedReq_avg_miss_latency::.cpu.data      1192500                       # average LoadLockedReq miss latency
system.cpu.dcache.LoadLockedReq_avg_miss_latency::total      1192500                       # average LoadLockedReq miss latency
system.cpu.dcache.LoadLockedReq_mshr_misses::.cpu.data            1                       # number of LoadLockedReq MSHR misses
system.cpu.dcache.LoadLockedReq_mshr_misses::total            1                       # number of LoadLockedReq MSHR misses
system.cpu.dcache.LoadLockedReq_mshr_miss_latency::.cpu.data      1191500                       # number of LoadLockedReq MSHR miss cycles
system.cpu.dcache.LoadLockedReq_mshr_miss_latency::total      1191500                       # number of LoadLockedReq MSHR miss cycles
system.cpu.dcache.LoadLockedReq_mshr_miss_rate::.cpu.data     0.055556                       # mshr miss rate for LoadLockedReq accesses
system.cpu.dcache.LoadLockedReq_mshr_miss_rate::total     0.055556                       # mshr miss rate for LoadLockedReq accesses
system.cpu.dcache.LoadLockedReq_avg_mshr_miss_latency::.cpu.data      1191500                       # average LoadLockedReq mshr miss latency
system.cpu.dcache.LoadLockedReq_avg_mshr_miss_latency::total      1191500                       # average LoadLockedReq mshr miss latency
system.cpu.dcache.StoreCondReq_hits::.cpu.data           18                       # number of StoreCondReq hits
system.cpu.dcache.StoreCondReq_hits::total           18                       # number of StoreCondReq hits
system.cpu.dcache.StoreCondReq_accesses::.cpu.data           18                       # number of StoreCondReq accesses(hits+misses)
system.cpu.dcache.StoreCondReq_accesses::total           18                       # number of StoreCondReq accesses(hits+misses)
system.cpu.dcache.power_state.pwrStateResidencyTicks::UNDEFINED    630608000                       # Cumulative time (in ticks) in various power states
system.cpu.dcache.tags.tagsinuse            96.785883                       # Cycle average of tags in use
system.cpu.dcache.tags.total_refs                3057                       # Total number of references to valid blocks.
system.cpu.dcache.tags.sampled_refs               169                       # Sample count of references to valid blocks.
system.cpu.dcache.tags.avg_refs             18.088757                       # Average number of references to valid blocks.
system.cpu.dcache.tags.warmup_cycle           2500000                       # Cycle when the warmup percentage was hit.
system.cpu.dcache.tags.occ_blocks::.cpu.data    96.785883                       # Average occupied blocks per requestor
system.cpu.dcache.tags.occ_percent::.cpu.data     0.094517                       # Average percentage of cache occupancy
system.cpu.dcache.tags.occ_percent::total     0.094517                       # Average percentage of cache occupancy
system.cpu.dcache.tags.occ_task_id_blocks::1024          169                       # Occupied blocks per task id
system.cpu.dcache.tags.age_task_id_blocks_1024::0            1                       # Occupied blocks per task id
system.cpu.dcache.tags.age_task_id_blocks_1024::1           15                       # Occupied blocks per task id
system.cpu.dcache.tags.age_task_id_blocks_1024::2          153                       # Occupied blocks per task id
system.cpu.dcache.tags.occ_task_id_percent::1024     0.165039                       # Percentage of cache occupancy per task id
system.cpu.dcache.tags.tag_accesses              6397                       # Number of tag accesses
system.cpu.dcache.tags.data_accesses             6397                       # Number of data accesses
system.cpu.dcache.tags.power_state.pwrStateResidencyTicks::UNDEFINED    630608000                       # Cumulative time (in ticks) in various power states
system.cpu.dtb.instHits                             0                       # ITB inst hits
system.cpu.dtb.instMisses                           0                       # ITB inst misses
system.cpu.dtb.readHits                             0                       # DTB read hits
system.cpu.dtb.readMisses                           0                       # DTB read misses
system.cpu.dtb.writeHits                            0                       # DTB write hits
system.cpu.dtb.writeMisses                          0                       # DTB write misses
system.cpu.dtb.inserts                              0                       # Number of times an entry is inserted into the TLB
system.cpu.dtb.flushTlb                             0                       # Number of times complete TLB was flushed
system.cpu.dtb.flushTlbMva                          0                       # Number of times TLB was flushed by MVA
system.cpu.dtb.flushTlbMvaAsid                      0                       # Number of times TLB was flushed by MVA & ASID
system.cpu.dtb.flushTlbAsid                         0                       # Number of times TLB was flushed by ASID
system.cpu.dtb.flushedEntries                       0                       # Number of entries that have been flushed from TLB
system.cpu.dtb.alignFaults                          0                       # Number of TLB faults due to alignment restrictions
system.cpu.dtb.prefetchFaults                       0                       # Number of TLB faults due to prefetch
system.cpu.dtb.domainFaults                         0                       # Number of TLB faults due to domain restrictions
system.cpu.dtb.permsFaults                          0                       # Number of TLB faults due to permissions restrictions
system.cpu.dtb.readAccesses                         0                       # DTB read accesses
system.cpu.dtb.writeAccesses                        0                       # DTB write accesses
system.cpu.dtb.instAccesses                         0                       # ITB inst accesses
system.cpu.dtb.hits                                 0                       # Total TLB (inst and data) hits
system.cpu.dtb.misses                               0                       # Total TLB (inst and data) misses
system.cpu.dtb.accesses                             0                       # Total TLB (inst and data) accesses
system.cpu.dtb.stage2_mmu.stage2_tlb.instHits            0                       # ITB inst hits
system.cpu.dtb.stage2_mmu.stage2_tlb.instMisses            0                       # ITB inst misses
system.cpu.dtb.stage2_mmu.stage2_tlb.readHits            0                       # DTB read hits
system.cpu.dtb.stage2_mmu.stage2_tlb.readMisses            0                       # DTB read misses
system.cpu.dtb.stage2_mmu.stage2_tlb.writeHits            0                       # DTB write hits
system.cpu.dtb.stage2_mmu.stage2_tlb.writeMisses            0                       # DTB write misses
system.cpu.dtb.stage2_mmu.stage2_tlb.inserts            0                       # Number of times an entry is inserted into the TLB
system.cpu.dtb.stage2_mmu.stage2_tlb.flushTlb            0                       # Number of times complete TLB was flushed
system.cpu.dtb.stage2_mmu.stage2_tlb.flushTlbMva            0                       # Number of times TLB was flushed by MVA
system.cpu.dtb.stage2_mmu.stage2_tlb.flushTlbMvaAsid            0                       # Number of times TLB was flushed by MVA & ASID
system.cpu.dtb.stage2_mmu.stage2_tlb.flushTlbAsid            0                       # Number of times TLB was flushed by ASID
system.cpu.dtb.stage2_mmu.stage2_tlb.flushedEntries            0                       # Number of entries that have been flushed from TLB
system.cpu.dtb.stage2_mmu.stage2_tlb.alignFaults            0                       # Number of TLB faults due to alignment restrictions
system.cpu.dtb.stage2_mmu.stage2_tlb.prefetchFaults            0                       # Number of TLB faults due to prefetch
system.cpu.dtb.stage2_mmu.stage2_tlb.domainFaults            0                       # Number of TLB faults due to domain restrictions
system.cpu.dtb.stage2_mmu.stage2_tlb.permsFaults            0                       # Number of TLB faults due to permissions restrictions
system.cpu.dtb.stage2_mmu.stage2_tlb.readAccesses            0                       # DTB read accesses
system.cpu.dtb.stage2_mmu.stage2_tlb.writeAccesses            0                       # DTB write accesses
system.cpu.dtb.stage2_mmu.stage2_tlb.instAccesses            0                       # ITB inst accesses
system.cpu.dtb.stage2_mmu.stage2_tlb.hits            0                       # Total TLB (inst and data) hits
system.cpu.dtb.stage2_mmu.stage2_tlb.misses            0                       # Total TLB (inst and data) misses
system.cpu.dtb.stage2_mmu.stage2_tlb.accesses            0                       # Total TLB (inst and data) accesses
system.cpu.dtb.stage2_mmu.stage2_tlb.walker.walks            0                       # Table walker walks requested
system.cpu.dtb.stage2_mmu.stage2_tlb.walker.requestOrigin_Requested::Data            0                       # Table walker requests started/completed, data/inst
system.cpu.dtb.stage2_mmu.stage2_tlb.walker.requestOrigin_Requested::Inst            0                       # Table walker requests started/completed, data/inst
system.cpu.dtb.stage2_mmu.stage2_tlb.walker.requestOrigin_Requested::total            0                       # Table walker requests started/completed, data/inst
system.cpu.dtb.stage2_mmu.stage2_tlb.walker.requestOrigin_Completed::Data            0                       # Table walker requests started/completed, data/inst
system.cpu.dtb.stage2_mmu.stage2_tlb.walker.requestOrigin_Completed::Inst            0                       # Table walker requests started/completed, data/inst
system.cpu.dtb.stage2_mmu.stage2_tlb.walker.requestOrigin_Completed::total            0                       # Table walker requests started/completed, data/inst
system.cpu.dtb.stage2_mmu.stage2_tlb.walker.requestOrigin::total            0                       # Table walker requests started/completed, data/inst
system.cpu.dtb.stage2_mmu.stage2_tlb.walker.power_state.pwrStateResidencyTicks::UNDEFINED    630608000                       # Cumulative time (in ticks) in various power states
system.cpu.dtb.walker.walks                         0                       # Table walker walks requested
system.cpu.dtb.walker.requestOrigin_Requested::Data            0                       # Table walker requests started/completed, data/inst
system.cpu.dtb.walker.requestOrigin_Requested::Inst            0                       # Table walker requests started/completed, data/inst
system.cpu.dtb.walker.requestOrigin_Requested::total            0                       # Table walker requests started/completed, data/inst
system.cpu.dtb.walker.requestOrigin_Completed::Data            0                       # Table walker requests started/completed, data/inst
system.cpu.dtb.walker.requestOrigin_Completed::Inst            0                       # Table walker requests started/completed, data/inst
system.cpu.dtb.walker.requestOrigin_Completed::total            0                       # Table walker requests started/completed, data/inst
system.cpu.dtb.walker.requestOrigin::total            0                       # Table walker requests started/completed, data/inst
system.cpu.dtb.walker.power_state.pwrStateResidencyTicks::UNDEFINED    630608000                       # Cumulative time (in ticks) in various power states
system.cpu.fetch2.intInstructions                9053                       # Number of integer instructions successfully decoded
system.cpu.fetch2.fpInstructions                    0                       # Number of floating point instructions successfully decoded
system.cpu.fetch2.vecInstructions                   0                       # Number of SIMD instructions successfully decoded
system.cpu.fetch2.loadInstructions               2119                       # Number of memory load instructions successfully decoded
system.cpu.fetch2.storeInstructions              1379                       # Number of memory store instructions successfully decoded
system.cpu.fetch2.amoInstructions                   0                       # Number of memory atomic instructions successfully decoded
system.cpu.icache.demand_hits::.cpu.inst         3047                       # number of demand (read+write) hits
system.cpu.icache.demand_hits::total             3047                       # number of demand (read+write) hits
system.cpu.icache.overall_hits::.cpu.inst         3047                       # number of overall hits
system.cpu.icache.overall_hits::total            3047                       # number of overall hits
system.cpu.icache.demand_misses::.cpu.inst          392                       # number of demand (read+write) misses
system.cpu.icache.demand_misses::total            392                       # number of demand (read+write) misses
system.cpu.icache.overall_misses::.cpu.inst          392                       # number of overall misses
system.cpu.icache.overall_misses::total           392                       # number of overall misses
system.cpu.icache.demand_miss_latency::.cpu.inst    493928500                       # number of demand (read+write) miss cycles
system.cpu.icache.demand_miss_latency::total    493928500                       # number of demand (read+write) miss cycles
system.cpu.icache.overall_miss_latency::.cpu.inst    493928500                       # number of overall miss cycles
system.cpu.icache.overall_miss_latency::total    493928500                       # number of overall miss cycles
system.cpu.icache.demand_accesses::.cpu.inst         3439                       # number of demand (read+write) accesses
system.cpu.icache.demand_accesses::total         3439                       # number of demand (read+write) accesses
system.cpu.icache.overall_accesses::.cpu.inst         3439                       # number of overall (read+write) accesses
system.cpu.icache.overall_accesses::total         3439                       # number of overall (read+write) accesses
system.cpu.icache.demand_miss_rate::.cpu.inst     0.113987                       # miss rate for demand accesses
system.cpu.icache.demand_miss_rate::total     0.113987                       # miss rate for demand accesses
system.cpu.icache.overall_miss_rate::.cpu.inst     0.113987                       # miss rate for overall accesses
system.cpu.icache.overall_miss_rate::total     0.113987                       # miss rate for overall accesses
system.cpu.icache.demand_avg_miss_latency::.cpu.inst 1260021.683673                       # average overall miss latency
system.cpu.icache.demand_avg_miss_latency::total 1260021.683673                       # average overall miss latency
system.cpu.icache.overall_avg_miss_latency::.cpu.inst 1260021.683673                       # average overall miss latency
system.cpu.icache.overall_avg_miss_latency::total 1260021.683673                       # average overall miss latency
system.cpu.icache.blocked_cycles::no_mshrs            0                       # number of cycles access was blocked
system.cpu.icache.blocked_cycles::no_targets            0                       # number of cycles access was blocked
system.cpu.icache.blocked::no_mshrs                 0                       # number of cycles access was blocked
system.cpu.icache.blocked::no_targets               0                       # number of cycles access was blocked
system.cpu.icache.avg_blocked_cycles::no_mshrs          nan                       # average number of cycles each access was blocked
system.cpu.icache.avg_blocked_cycles::no_targets          nan                       # average number of cycles each access was blocked
system.cpu.icache.writebacks::.writebacks           57                       # number of writebacks
system.cpu.icache.writebacks::total                57                       # number of writebacks
system.cpu.icache.demand_mshr_misses::.cpu.inst          392                       # number of demand (read+write) MSHR misses
system.cpu.icache.demand_mshr_misses::total          392                       # number of demand (read+write) MSHR misses
system.cpu.icache.overall_mshr_misses::.cpu.inst          392                       # number of overall MSHR misses
system.cpu.icache.overall_mshr_misses::total          392                       # number of overall MSHR misses
system.cpu.icache.demand_mshr_miss_latency::.cpu.inst    493536500                       # number of demand (read+write) MSHR miss cycles
system.cpu.icache.demand_mshr_miss_latency::total    493536500                       # number of demand (read+write) MSHR miss cycles
system.cpu.icache.overall_mshr_miss_latency::.cpu.inst    493536500                       # number of overall MSHR miss cycles
system.cpu.icache.overall_mshr_miss_latency::total    493536500                       # number of overall MSHR miss cycles
system.cpu.icache.demand_mshr_miss_rate::.cpu.inst     0.113987                       # mshr miss rate for demand accesses
system.cpu.icache.demand_mshr_miss_rate::total     0.113987                       # mshr miss rate for demand accesses
system.cpu.icache.overall_mshr_miss_rate::.cpu.inst     0.113987                       # mshr miss rate for overall accesses
system.cpu.icache.overall_mshr_miss_rate::total     0.113987                       # mshr miss rate for overall accesses
system.cpu.icache.demand_avg_mshr_miss_latency::.cpu.inst 1259021.683673                       # average overall mshr miss latency
system.cpu.icache.demand_avg_mshr_miss_latency::total 1259021.683673                       # average overall mshr miss latency
system.cpu.icache.overall_avg_mshr_miss_latency::.cpu.inst 1259021.683673                       # average overall mshr miss latency
system.cpu.icache.overall_avg_mshr_miss_latency::total 1259021.683673                       # average overall mshr miss latency
system.cpu.icache.replacements                     57                       # number of replacements
system.cpu.icache.ReadReq_hits::.cpu.inst         3047                       # number of ReadReq hits
system.cpu.icache.ReadReq_hits::total            3047                       # number of ReadReq hits
system.cpu.icache.ReadReq_misses::.cpu.inst          392                       # number of ReadReq misses
system.cpu.icache.ReadReq_misses::total           392                       # number of ReadReq misses
system.cpu.icache.ReadReq_miss_latency::.cpu.inst    493928500                       # number of ReadReq miss cycles
system.cpu.icache.ReadReq_miss_latency::total    493928500                       # number of ReadReq miss cycles
system.cpu.icache.ReadReq_accesses::.cpu.inst         3439                       # number of ReadReq accesses(hits+misses)
system.cpu.icache.ReadReq_accesses::total         3439                       # number of ReadReq accesses(hits+misses)
system.cpu.icache.ReadReq_miss_rate::.cpu.inst     0.113987                       # miss rate for ReadReq accesses
system.cpu.icache.ReadReq_miss_rate::total     0.113987                       # miss rate for ReadReq accesses
system.cpu.icache.ReadReq_avg_miss_latency::.cpu.inst 1260021.683673                       # average ReadReq miss latency
system.cpu.icache.ReadReq_avg_miss_latency::total 1260021.683673                       # average ReadReq miss latency
system.cpu.icache.ReadReq_mshr_misses::.cpu.inst          392                       # number of ReadReq MSHR misses
system.cpu.icache.ReadReq_mshr_misses::total          392                       # number of ReadReq MSHR misses
system.cpu.icache.ReadReq_mshr_miss_latency::.cpu.inst    493536500                       # number of ReadReq MSHR miss cycles
system.cpu.icache.ReadReq_mshr_miss_latency::total    493536500                       # number of ReadReq MSHR miss cycles
system.cpu.icache.ReadReq_mshr_miss_rate::.cpu.inst     0.113987                       # mshr miss rate for ReadReq accesses
system.cpu.icache.ReadReq_mshr_miss_rate::total     0.113987                       # mshr miss rate for ReadReq accesses
system.cpu.icache.ReadReq_avg_mshr_miss_latency::.cpu.inst 1259021.683673                       # average ReadReq mshr miss latency
system.cpu.icache.ReadReq_avg_mshr_miss_latency::total 1259021.683673                       # average ReadReq mshr miss latency
system.cpu.icache.power_state.pwrStateResidencyTicks::UNDEFINED    630608000                       # Cumulative time (in ticks) in various power states
system.cpu.icache.tags.tagsinuse           179.761881                       # Cycle average of tags in use
system.cpu.icache.tags.total_refs                3439                       # Total number of references to valid blocks.
system.cpu.icache.tags.sampled_refs               392                       # Sample count of references to valid blocks.
system.cpu.icache.tags.avg_refs              8.772959                       # Average number of references to valid blocks.
system.cpu.icache.tags.warmup_cycle           1200000                       # Cycle when the warmup percentage was hit.
system.cpu.icache.tags.occ_blocks::.cpu.inst   179.761881                       # Average occupied blocks per requestor
system.cpu.icache.tags.occ_percent::.cpu.inst     0.351097                       # Average percentage of cache occupancy
system.cpu.icache.tags.occ_percent::total     0.351097                       # Average percentage of cache occupancy
system.cpu.icache.tags.occ_task_id_blocks::1024          335                       # Occupied blocks per task id
system.cpu.icache.tags.age_task_id_blocks_1024::0            6                       # Occupied blocks per task id
system.cpu.icache.tags.age_task_id_blocks_1024::1           57                       # Occupied blocks per task id
system.cpu.icache.tags.age_task_id_blocks_1024::2          272                       # Occupied blocks per task id
system.cpu.icache.tags.occ_task_id_percent::1024     0.654297                       # Percentage of cache occupancy per task id
system.cpu.icache.tags.tag_accesses              7270                       # Number of tag accesses
system.cpu.icache.tags.data_accesses             7270                       # Number of data accesses
system.cpu.icache.tags.power_state.pwrStateResidencyTicks::UNDEFINED    630608000                       # Cumulative time (in ticks) in various power states
system.cpu.itb.instHits                             0                       # ITB inst hits
system.cpu.itb.instMisses                           0                       # ITB inst misses
system.cpu.itb.readHits                             0                       # DTB read hits
system.cpu.itb.readMisses                           0                       # DTB read misses
system.cpu.itb.writeHits                            0                       # DTB write hits
system.cpu.itb.writeMisses                          0                       # DTB write misses
system.cpu.itb.inserts                              0                       # Number of times an entry is inserted into the TLB
system.cpu.itb.flushTlb                             0                       # Number of times complete TLB was flushed
system.cpu.itb.flushTlbMva                          0                       # Number of times TLB was flushed by MVA
system.cpu.itb.flushTlbMvaAsid                      0                       # Number of times TLB was flushed by MVA & ASID
system.cpu.itb.flushTlbAsid                         0                       # Number of times TLB was flushed by ASID
system.cpu.itb.flushedEntries                       0                       # Number of entries that have been flushed from TLB
system.cpu.itb.alignFaults                          0                       # Number of TLB faults due to alignment restrictions
system.cpu.itb.prefetchFaults                       0                       # Number of TLB faults due to prefetch
system.cpu.itb.domainFaults                         0                       # Number of TLB faults due to domain restrictions
system.cpu.itb.permsFaults                          0                       # Number of TLB faults due to permissions restrictions
system.cpu.itb.readAccesses                         0                       # DTB read accesses
system.cpu.itb.writeAccesses                        0                       # DTB write accesses
system.cpu.itb.instAccesses                         0                       # ITB inst accesses
system.cpu.itb.hits                                 0                       # Total TLB (inst and data) hits
system.cpu.itb.misses                               0                       # Total TLB (inst and data) misses
system.cpu.itb.accesses                             0                       # Total TLB (inst and data) accesses
system.cpu.itb.stage2_mmu.stage2_tlb.instHits            0                       # ITB inst hits
system.cpu.itb.stage2_mmu.stage2_tlb.instMisses            0                       # ITB inst misses
system.cpu.itb.stage2_mmu.stage2_tlb.readHits            0                       # DTB read hits
system.cpu.itb.stage2_mmu.stage2_tlb.readMisses            0                       # DTB read misses
system.cpu.itb.stage2_mmu.stage2_tlb.writeHits            0                       # DTB write hits
system.cpu.itb.stage2_mmu.stage2_tlb.writeMisses            0                       # DTB write misses
system.cpu.itb.stage2_mmu.stage2_tlb.inserts            0                       # Number of times an entry is inserted into the TLB
system.cpu.itb.stage2_mmu.stage2_tlb.flushTlb            0                       # Number of times complete TLB was flushed
system.cpu.itb.stage2_mmu.stage2_tlb.flushTlbMva            0                       # Number of times TLB was flushed by MVA
system.cpu.itb.stage2_mmu.stage2_tlb.flushTlbMvaAsid            0                       # Number of times TLB was flushed by MVA & ASID
system.cpu.itb.stage2_mmu.stage2_tlb.flushTlbAsid            0                       # Number of times TLB was flushed by ASID
system.cpu.itb.stage2_mmu.stage2_tlb.flushedEntries            0                       # Number of entries that have been flushed from TLB
system.cpu.itb.stage2_mmu.stage2_tlb.alignFaults            0                       # Number of TLB faults due to alignment restrictions
system.cpu.itb.stage2_mmu.stage2_tlb.prefetchFaults            0                       # Number of TLB faults due to prefetch
system.cpu.itb.stage2_mmu.stage2_tlb.domainFaults            0                       # Number of TLB faults due to domain restrictions
system.cpu.itb.stage2_mmu.stage2_tlb.permsFaults            0                       # Number of TLB faults due to permissions restrictions
system.cpu.itb.stage2_mmu.stage2_tlb.readAccesses            0                       # DTB read accesses
system.cpu.itb.stage2_mmu.stage2_tlb.writeAccesses            0                       # DTB write accesses
system.cpu.itb.stage2_mmu.stage2_tlb.instAccesses            0                       # ITB inst accesses
system.cpu.itb.stage2_mmu.stage2_tlb.hits            0                       # Total TLB (inst and data) hits
system.cpu.itb.stage2_mmu.stage2_tlb.misses            0                       # Total TLB (inst and data) misses
system.cpu.itb.stage2_mmu.stage2_tlb.accesses            0                       # Total TLB (inst and data) accesses
system.cpu.itb.stage2_mmu.stage2_tlb.walker.walks            0                       # Table walker walks requested
system.cpu.itb.stage2_mmu.stage2_tlb.walker.requestOrigin_Requested::Data            0                       # Table walker requests started/completed, data/inst
system.cpu.itb.stage2_mmu.stage2_tlb.walker.requestOrigin_Requested::Inst            0                       # Table walker requests started/completed, data/inst
system.cpu.itb.stage2_mmu.stage2_tlb.walker.requestOrigin_Requested::total            0                       # Table walker requests started/completed, data/inst
system.cpu.itb.stage2_mmu.stage2_tlb.walker.requestOrigin_Completed::Data            0                       # Table walker requests started/completed, data/inst
system.cpu.itb.stage2_mmu.stage2_tlb.walker.requestOrigin_Completed::Inst            0                       # Table walker requests started/completed, data/inst
system.cpu.itb.stage2_mmu.stage2_tlb.walker.requestOrigin_Completed::total            0                       # Table walker requests started/completed, data/inst
system.cpu.itb.stage2_mmu.stage2_tlb.walker.requestOrigin::total            0                       # Table walker requests started/completed, data/inst
system.cpu.itb.stage2_mmu.stage2_tlb.walker.power_state.pwrStateResidencyTicks::UNDEFINED    630608000                       # Cumulative time (in ticks) in various power states
system.cpu.itb.walker.walks                         0                       # Table walker walks requested
system.cpu.itb.walker.requestOrigin_Requested::Data            0                       # Table walker requests started/completed, data/inst
system.cpu.itb.walker.requestOrigin_Requested::Inst            0                       # Table walker requests started/completed, data/inst
system.cpu.itb.walker.requestOrigin_Requested::total            0                       # Table walker requests started/completed, data/inst
system.cpu.itb.walker.requestOrigin_Completed::Data            0                       # Table walker requests started/completed, data/inst
system.cpu.itb.walker.requestOrigin_Completed::Inst            0                       # Table walker requests started/completed, data/inst
system.cpu.itb.walker.requestOrigin_Completed::total            0                       # Table walker requests started/completed, data/inst
system.cpu.itb.walker.requestOrigin::total            0                       # Table walker requests started/completed, data/inst
system.cpu.itb.walker.power_state.pwrStateResidencyTicks::UNDEFINED    630608000                       # Cumulative time (in ticks) in various power states
system.cpu.power_state.pwrStateResidencyTicks::ON    630608000                       # Cumulative time (in ticks) in various power states
system.cpu.thread_0.numInsts                     8415                       # Number of Instructions committed
system.cpu.thread_0.numOps                       9611                       # Number of Ops committed
system.cpu.thread_0.numMemRefs                      0                       # Number of Memory References
system.cpu_clk_domain.clock                       500                       # Clock period in ticks
system.cpu_voltage_domain.voltage                   1                       # Voltage in Volts
system.mem_ctrls.avgPriority_.writebacks::samples        54.00                       # Average QoS priority value for accepted requests
system.mem_ctrls.avgPriority_.cpu.inst::samples       385.00                       # Average QoS priority value for accepted requests
system.mem_ctrls.avgPriority_.cpu.data::samples       168.00                       # Average QoS priority value for accepted requests
system.mem_ctrls.priorityMinLatency      0.000000018750                       # per QoS priority minimum request to response latency (s)
system.mem_ctrls.priorityMaxLatency      0.000601432500                       # per QoS priority maximum request to response latency (s)
system.mem_ctrls.numReadWriteTurnArounds            2                       # Number of turnarounds from READ to WRITE
system.mem_ctrls.numWriteReadTurnArounds            2                       # Number of turnarounds from WRITE to READ
system.mem_ctrls.numStayReadState                1320                       # Number of times bus staying in READ state
system.mem_ctrls.numStayWriteState                 34                       # Number of times bus staying in WRITE state
system.mem_ctrls.readReqs                         561                       # Number of read requests accepted
system.mem_ctrls.writeReqs                         54                       # Number of write requests accepted
system.mem_ctrls.readBursts                       561                       # Number of controller read bursts, including those serviced by the write queue
system.mem_ctrls.writeBursts                       54                       # Number of controller write bursts, including those merged in the write queue
system.mem_ctrls.servicedByWrQ                      8                       # Number of controller read bursts serviced by the write queue
system.mem_ctrls.mergedWrBursts                     0                       # Number of controller write bursts merged with an existing one
system.mem_ctrls.neitherReadNorWriteReqs            0                       # Number of requests that are neither read nor write
system.mem_ctrls.avgRdQLen                       1.00                       # Average read queue length when enqueuing
system.mem_ctrls.avgWrQLen                      11.10                       # Average write queue length when enqueuing
system.mem_ctrls.numRdRetry                         0                       # Number of times read queue was full causing retry
system.mem_ctrls.numWrRetry                         0                       # Number of times write queue was full causing retry
system.mem_ctrls.readPktSize::0                     0                       # Read request sizes (log2)
system.mem_ctrls.readPktSize::1                     0                       # Read request sizes (log2)
system.mem_ctrls.readPktSize::2                     0                       # Read request sizes (log2)
system.mem_ctrls.readPktSize::3                     0                       # Read request sizes (log2)
system.mem_ctrls.readPktSize::4                     0                       # Read request sizes (log2)
system.mem_ctrls.readPktSize::5                     0                       # Read request sizes (log2)
system.mem_ctrls.readPktSize::6                   561                       # Read request sizes (log2)
system.mem_ctrls.writePktSize::0                    0                       # Write request sizes (log2)
system.mem_ctrls.writePktSize::1                    0                       # Write request sizes (log2)
system.mem_ctrls.writePktSize::2                    0                       # Write request sizes (log2)
system.mem_ctrls.writePktSize::3                    0                       # Write request sizes (log2)
system.mem_ctrls.writePktSize::4                    0                       # Write request sizes (log2)
system.mem_ctrls.writePktSize::5                    0                       # Write request sizes (log2)
system.mem_ctrls.writePktSize::6                   54                       # Write request sizes (log2)
system.mem_ctrls.rdQLenPdf::0                     552                       # What read queue length does an incoming req see
system.mem_ctrls.rdQLenPdf::1                       1                       # What read queue length does an incoming req see
system.mem_ctrls.rdQLenPdf::2                       0                       # What read queue length does an incoming req see
system.mem_ctrls.rdQLenPdf::3                       0                       # What read queue length does an incoming req see
system.mem_ctrls.rdQLenPdf::4                       0                       # What read queue length does an incoming req see
system.mem_ctrls.rdQLenPdf::5                       0                       # What read queue length does an incoming req see
system.mem_ctrls.rdQLenPdf::6                       0                       # What read queue length does an incoming req see
system.mem_ctrls.rdQLenPdf::7                       0                       # What read queue length does an incoming req see
system.mem_ctrls.rdQLenPdf::8                       0                       # What read queue length does an incoming req see
system.mem_ctrls.rdQLenPdf::9                       0                       # What read queue length does an incoming req see
system.mem_ctrls.rdQLenPdf::10                      0                       # What read queue length does an incoming req see
system.mem_ctrls.rdQLenPdf::11                      0                       # What read queue length does an incoming req see
system.mem_ctrls.rdQLenPdf::12                      0                       # What read queue length does an incoming req see
system.mem_ctrls.rdQLenPdf::13                      0                       # What read queue length does an incoming req see
system.mem_ctrls.rdQLenPdf::14                      0                       # What read queue length does an incoming req see
system.mem_ctrls.rdQLenPdf::15                      0                       # What read queue length does an incoming req see
system.mem_ctrls.rdQLenPdf::16                      0                       # What read queue length does an incoming req see
system.mem_ctrls.rdQLenPdf::17                      0                       # What read queue length does an incoming req see
system.mem_ctrls.rdQLenPdf::18                      0                       # What read queue length does an incoming req see
system.mem_ctrls.rdQLenPdf::19                      0                       # What read queue length does an incoming req see
system.mem_ctrls.rdQLenPdf::20                      0                       # What read queue length does an incoming req see
system.mem_ctrls.rdQLenPdf::21                      0                       # What read queue length does an incoming req see
system.mem_ctrls.rdQLenPdf::22                      0                       # What read queue length does an incoming req see
system.mem_ctrls.rdQLenPdf::23                      0                       # What read queue length does an incoming req see
system.mem_ctrls.rdQLenPdf::24                      0                       # What read queue length does an incoming req see
system.mem_ctrls.rdQLenPdf::25                      0                       # What read queue length does an incoming req see
system.mem_ctrls.rdQLenPdf::26                      0                       # What read queue length does an incoming req see
system.mem_ctrls.rdQLenPdf::27                      0                       # What read queue length does an incoming req see
system.mem_ctrls.rdQLenPdf::28                      0                       # What read queue length does an incoming req see
system.mem_ctrls.rdQLenPdf::29                      0                       # What read queue length does an incoming req see
system.mem_ctrls.rdQLenPdf::30                      0                       # What read queue length does an incoming req see
system.mem_ctrls.rdQLenPdf::31                      0                       # What read queue length does an incoming req see
system.mem_ctrls.wrQLenPdf::0                       1                       # What write queue length does an incoming req see
system.mem_ctrls.wrQLenPdf::1                       1                       # What write queue length does an incoming req see
system.mem_ctrls.wrQLenPdf::2                       1                       # What write queue length does an incoming req see
system.mem_ctrls.wrQLenPdf::3                       1                       # What write queue length does an incoming req see
system.mem_ctrls.wrQLenPdf::4                       1                       # What write queue length does an incoming req see
system.mem_ctrls.wrQLenPdf::5                       1                       # What write queue length does an incoming req see
system.mem_ctrls.wrQLenPdf::6                       1                       # What write queue length does an incoming req see
system.mem_ctrls.wrQLenPdf::7                       1                       # What write queue length does an incoming req see
system.mem_ctrls.wrQLenPdf::8                       1                       # What write queue length does an incoming req see
system.mem_ctrls.wrQLenPdf::9                       1                       # What write queue length does an incoming req see
system.mem_ctrls.wrQLenPdf::10                      1                       # What write queue length does an incoming req see
system.mem_ctrls.wrQLenPdf::11                      1                       # What write queue length does an incoming req see
system.mem_ctrls.wrQLenPdf::12                      1                       # What write queue length does an incoming req see
system.mem_ctrls.wrQLenPdf::13                      1                       # What write queue length does an incoming req see
system.mem_ctrls.wrQLenPdf::14                      1                       # What write queue length does an incoming req see
system.mem_ctrls.wrQLenPdf::15                      3                       # What write queue length does an incoming req see
system.mem_ctrls.wrQLenPdf::16                      3                       # What write queue length does an incoming req see
system.mem_ctrls.wrQLenPdf::17                      3                       # What write queue length does an incoming req see
system.mem_ctrls.wrQLenPdf::18                      2                       # What write queue length does an incoming req see
system.mem_ctrls.wrQLenPdf::19                      2                       # What write queue length does an incoming req see
system.mem_ctrls.wrQLenPdf::20                      2                       # What write queue length does an incoming req see
system.mem_ctrls.wrQLenPdf::21                      2                       # What write queue length does an incoming req see
system.mem_ctrls.wrQLenPdf::22                      2                       # What write queue length does an incoming req see
system.mem_ctrls.wrQLenPdf::23                      2                       # What write queue length does an incoming req see
system.mem_ctrls.wrQLenPdf::24                      2                       # What write queue length does an incoming req see
system.mem_ctrls.wrQLenPdf::25                      2                       # What write queue length does an incoming req see
system.mem_ctrls.wrQLenPdf::26                      2                       # What write queue length does an incoming req see
system.mem_ctrls.wrQLenPdf::27                      2                       # What write queue length does an incoming req see
system.mem_ctrls.wrQLenPdf::28                      2                       # What write queue length does an incoming req see
system.mem_ctrls.wrQLenPdf::29                      2                       # What write queue length does an incoming req see
system.mem_ctrls.wrQLenPdf::30                      2                       # What write queue length does an incoming req see
system.mem_ctrls.wrQLenPdf::31                      2                       # What write queue length does an incoming req see
system.mem_ctrls.wrQLenPdf::32                      2                       # What write queue length does an incoming req see
system.mem_ctrls.wrQLenPdf::33                      0                       # What write queue length does an incoming req see
system.mem_ctrls.wrQLenPdf::34                      0                       # What write queue length does an incoming req see
system.mem_ctrls.wrQLenPdf::35                      0                       # What write queue length does an incoming req see
system.mem_ctrls.wrQLenPdf::36                      0                       # What write queue length does an incoming req see
system.mem_ctrls.wrQLenPdf::37                      0                       # What write queue length does an incoming req see
system.mem_ctrls.wrQLenPdf::38                      0                       # What write queue length does an incoming req see
system.mem_ctrls.wrQLenPdf::39                      0                       # What write queue length does an incoming req see
system.mem_ctrls.wrQLenPdf::40                      0                       # What write queue length does an incoming req see
system.mem_ctrls.wrQLenPdf::41                      0                       # What write queue length does an incoming req see
system.mem_ctrls.wrQLenPdf::42                      0                       # What write queue length does an incoming req see
system.mem_ctrls.wrQLenPdf::43                      0                       # What write queue length does an incoming req see
system.mem_ctrls.wrQLenPdf::44                      0                       # What write queue length does an incoming req see
system.mem_ctrls.wrQLenPdf::45                      0                       # What write queue length does an incoming req see
system.mem_ctrls.wrQLenPdf::46                      0                       # What write queue length does an incoming req see
system.mem_ctrls.wrQLenPdf::47                      0                       # What write queue length does an incoming req see
system.mem_ctrls.wrQLenPdf::48                      0                       # What write queue length does an incoming req see
system.mem_ctrls.wrQLenPdf::49                      0                       # What write queue length does an incoming req see
system.mem_ctrls.wrQLenPdf::50                      0                       # What write queue length does an incoming req see
system.mem_ctrls.wrQLenPdf::51                      0                       # What write queue length does an incoming req see
system.mem_ctrls.wrQLenPdf::52                      0                       # What write queue length does an incoming req see
system.mem_ctrls.wrQLenPdf::53                      0                       # What write queue length does an incoming req see
system.mem_ctrls.wrQLenPdf::54                      0                       # What write queue length does an incoming req see
system.mem_ctrls.wrQLenPdf::55                      0                       # What write queue length does an incoming req see
system.mem_ctrls.wrQLenPdf::56                      0                       # What write queue length does an incoming req see
system.mem_ctrls.wrQLenPdf::57                      0                       # What write queue length does an incoming req see
system.mem_ctrls.wrQLenPdf::58                      0                       # What write queue length does an incoming req see
system.mem_ctrls.wrQLenPdf::59                      0                       # What write queue length does an incoming req see
system.mem_ctrls.wrQLenPdf::60                      0                       # What write queue length does an incoming req see
system.mem_ctrls.wrQLenPdf::61                      0                       # What write queue length does an incoming req see
system.mem_ctrls.wrQLenPdf::62                      0                       # What write queue length does an incoming req see
system.mem_ctrls.wrQLenPdf::63                      0                       # What write queue length does an incoming req see
system.mem_ctrls.rdPerTurnAround::samples            2                       # Reads before turning the bus around for writes
system.mem_ctrls.rdPerTurnAround::mean     274.500000                       # Reads before turning the bus around for writes
system.mem_ctrls.rdPerTurnAround::gmean    217.471837                       # Reads before turning the bus around for writes
system.mem_ctrls.rdPerTurnAround::stdev    236.880772                       # Reads before turning the bus around for writes
system.mem_ctrls.rdPerTurnAround::96-111            1     50.00%     50.00% # Reads before turning the bus around for writes
system.mem_ctrls.rdPerTurnAround::432-447            1     50.00%    100.00% # Reads before turning the bus around for writes
system.mem_ctrls.rdPerTurnAround::total             2                       # Reads before turning the bus around for writes
system.mem_ctrls.wrPerTurnAround::samples            2                       # Writes before turning the bus around for reads
system.mem_ctrls.wrPerTurnAround::mean             18                       # Writes before turning the bus around for reads
system.mem_ctrls.wrPerTurnAround::gmean     18.000000                       # Writes before turning the bus around for reads
system.mem_ctrls.wrPerTurnAround::18                2    100.00%    100.00% # Writes before turning the bus around for reads
system.mem_ctrls.wrPerTurnAround::total             2                       # Writes before turning the bus around for reads
system.mem_ctrls.bytesReadWrQ                     512                       # Total number of bytes read from write queue
system.mem_ctrls.bytesReadSys                   35904                       # Total read bytes from the system interface side
system.mem_ctrls.bytesWrittenSys                 3456                       # Total written bytes from the system interface side
system.mem_ctrls.avgRdBWSys                     56.94                       # Average system read bandwidth in MiByte/s
system.mem_ctrls.avgWrBWSys                      5.48                       # Average system write bandwidth in MiByte/s
system.mem_ctrls.totGap                     630599500                       # Total gap between requests
system.mem_ctrls.avgGap                    1025365.04                       # Average gap between requests
system.mem_ctrls.requestorReadBytes::.cpu.inst        24640                       # Per-requestor bytes read from memory
system.mem_ctrls.requestorReadBytes::.cpu.data        10752                       # Per-requestor bytes read from memory
system.mem_ctrls.requestorWriteBytes::.writebacks         2304                       # Per-requestor bytes write to memory
system.mem_ctrls.requestorReadRate::.cpu.inst 39073402.176946692169                       # Per-requestor bytes read from memory rate (Bytes/sec)
system.mem_ctrls.requestorReadRate::.cpu.data 17050211.859031286091                       # Per-requestor bytes read from memory rate (Bytes/sec)
system.mem_ctrls.requestorWriteRate::.writebacks 3653616.826935275458                       # Per-requestor bytes write to memory rate (Bytes/sec)
system.mem_ctrls.requestorReadAccesses::.cpu.inst          392                       # Per-requestor read serviced memory accesses
system.mem_ctrls.requestorReadAccesses::.cpu.data          169                       # Per-requestor read serviced memory accesses
system.mem_ctrls.requestorWriteAccesses::.writebacks           54                       # Per-requestor write serviced memory accesses
system.mem_ctrls.requestorReadTotalLat::.cpu.inst     11175750                       # Per-requestor read total memory access latency
system.mem_ctrls.requestorReadTotalLat::.cpu.data      5213250                       # Per-requestor read total memory access latency
system.mem_ctrls.requestorWriteTotalLat::.writebacks   5604415000                       # Per-requestor write total memory access latency
system.mem_ctrls.requestorReadAvgLat::.cpu.inst     28509.57                       # Per-requestor read average memory access latency
system.mem_ctrls.requestorReadAvgLat::.cpu.data     30847.63                       # Per-requestor read average memory access latency
system.mem_ctrls.requestorWriteAvgLat::.writebacks 103785462.96                       # Per-requestor write average memory access latency
system.mem_ctrls.dram.bytes_read::.cpu.inst        25088                       # Number of bytes read from this memory
system.mem_ctrls.dram.bytes_read::.cpu.data        10816                       # Number of bytes read from this memory
system.mem_ctrls.dram.bytes_read::total         35904                       # Number of bytes read from this memory
system.mem_ctrls.dram.bytes_inst_read::.cpu.inst        25088                       # Number of instructions bytes read from this memory
system.mem_ctrls.dram.bytes_inst_read::total        25088                       # Number of instructions bytes read from this memory
system.mem_ctrls.dram.num_reads::.cpu.inst          392                       # Number of read requests responded to by this memory
system.mem_ctrls.dram.num_reads::.cpu.data          169                       # Number of read requests responded to by this memory
system.mem_ctrls.dram.num_reads::total            561                       # Number of read requests responded to by this memory
system.mem_ctrls.dram.bw_read::.cpu.inst     39783828                       # Total read bandwidth from this memory (bytes/s)
system.mem_ctrls.dram.bw_read::.cpu.data     17151701                       # Total read bandwidth from this memory (bytes/s)
system.mem_ctrls.dram.bw_read::total         56935529                       # Total read bandwidth from this memory (bytes/s)
system.mem_ctrls.dram.bw_inst_read::.cpu.inst     39783828                       # Instruction read bandwidth from this memory (bytes/s)
system.mem_ctrls.dram.bw_inst_read::total     39783828                       # Instruction read bandwidth from this memory (bytes/s)
system.mem_ctrls.dram.bw_total::.cpu.inst     39783828                       # Total bandwidth to/from this memory (bytes/s)
system.mem_ctrls.dram.bw_total::.cpu.data     17151701                       # Total bandwidth to/from this memory (bytes/s)
system.mem_ctrls.dram.bw_total::total        56935529                       # Total bandwidth to/from this memory (bytes/s)
system.mem_ctrls.dram.readBursts                  553                       # Number of DRAM read bursts
system.mem_ctrls.dram.writeBursts                  36                       # Number of DRAM write bursts
system.mem_ctrls.dram.perBankRdBursts::0           41                       # Per bank write bursts
system.mem_ctrls.dram.perBankRdBursts::1            7                       # Per bank write bursts
system.mem_ctrls.dram.perBankRdBursts::2           16                       # Per bank write bursts
system.mem_ctrls.dram.perBankRdBursts::3           47                       # Per bank write bursts
system.mem_ctrls.dram.perBankRdBursts::4           38                       # Per bank write bursts
system.mem_ctrls.dram.perBankRdBursts::5           59                       # Per bank write bursts
system.mem_ctrls.dram.perBankRdBursts::6           30                       # Per bank write bursts
system.mem_ctrls.dram.perBankRdBursts::7          105                       # Per bank write bursts
system.mem_ctrls.dram.perBankRdBursts::8           55                       # Per bank write bursts
system.mem_ctrls.dram.perBankRdBursts::9           69                       # Per bank write bursts
system.mem_ctrls.dram.perBankRdBursts::10            7                       # Per bank write bursts
system.mem_ctrls.dram.perBankRdBursts::11           10                       # Per bank write bursts
system.mem_ctrls.dram.perBankRdBursts::12            6                       # Per bank write bursts
system.mem_ctrls.dram.perBankRdBursts::13           14                       # Per bank write bursts
system.mem_ctrls.dram.perBankRdBursts::14           24                       # Per bank write bursts
system.mem_ctrls.dram.perBankRdBursts::15           25                       # Per bank write bursts
system.mem_ctrls.dram.perBankWrBursts::0            0                       # Per bank write bursts
system.mem_ctrls.dram.perBankWrBursts::1            0                       # Per bank write bursts
system.mem_ctrls.dram.perBankWrBursts::2            0                       # Per bank write bursts
system.mem_ctrls.dram.perBankWrBursts::3            0                       # Per bank write bursts
system.mem_ctrls.dram.perBankWrBursts::4            0                       # Per bank write bursts
system.mem_ctrls.dram.perBankWrBursts::5           13                       # Per bank write bursts
system.mem_ctrls.dram.perBankWrBursts::6            0                       # Per bank write bursts
system.mem_ctrls.dram.perBankWrBursts::7           11                       # Per bank write bursts
system.mem_ctrls.dram.perBankWrBursts::8            0                       # Per bank write bursts
system.mem_ctrls.dram.perBankWrBursts::9           10                       # Per bank write bursts
system.mem_ctrls.dram.perBankWrBursts::10            0                       # Per bank write bursts
system.mem_ctrls.dram.perBankWrBursts::11            2                       # Per bank write bursts
system.mem_ctrls.dram.perBankWrBursts::12            0                       # Per bank write bursts
system.mem_ctrls.dram.perBankWrBursts::13            0                       # Per bank write bursts
system.mem_ctrls.dram.perBankWrBursts::14            0                       # Per bank write bursts
system.mem_ctrls.dram.perBankWrBursts::15            0                       # Per bank write bursts
system.mem_ctrls.dram.totQLat                 6020250                       # Total ticks spent queuing
system.mem_ctrls.dram.totBusLat               2765000                       # Total ticks spent in databus transfers
system.mem_ctrls.dram.totMemAccLat           16389000                       # Total ticks spent from burst creation until serviced by the DRAM
system.mem_ctrls.dram.avgQLat                10886.53                       # Average queueing delay per DRAM burst
system.mem_ctrls.dram.avgBusLat               5000.00                       # Average bus latency per DRAM burst
system.mem_ctrls.dram.avgMemAccLat           29636.53                       # Average memory access latency per DRAM burst
system.mem_ctrls.dram.readRowHits                 317                       # Number of row buffer hits during reads
system.mem_ctrls.dram.writeRowHits                 31                       # Number of row buffer hits during writes
system.mem_ctrls.dram.readRowHitRate            57.32                       # Row buffer hit rate for reads
system.mem_ctrls.dram.writeRowHitRate           86.11                       # Row buffer hit rate for writes
system.mem_ctrls.dram.bytesPerActivate::samples          237                       # Bytes accessed per row activation
system.mem_ctrls.dram.bytesPerActivate::mean   152.843882                       # Bytes accessed per row activation
system.mem_ctrls.dram.bytesPerActivate::gmean   125.325022                       # Bytes accessed per row activation
system.mem_ctrls.dram.bytesPerActivate::stdev   104.091697                       # Bytes accessed per row activation
system.mem_ctrls.dram.bytesPerActivate::64-127           89     37.55%     37.55% # Bytes accessed per row activation
system.mem_ctrls.dram.bytesPerActivate::128-191           68     28.69%     66.24% # Bytes accessed per row activation
system.mem_ctrls.dram.bytesPerActivate::192-255           32     13.50%     79.75% # Bytes accessed per row activation
system.mem_ctrls.dram.bytesPerActivate::256-319           19      8.02%     87.76% # Bytes accessed per row activation
system.mem_ctrls.dram.bytesPerActivate::320-383           15      6.33%     94.09% # Bytes accessed per row activation
system.mem_ctrls.dram.bytesPerActivate::384-447            8      3.38%     97.47% # Bytes accessed per row activation
system.mem_ctrls.dram.bytesPerActivate::448-511            4      1.69%     99.16% # Bytes accessed per row activation
system.mem_ctrls.dram.bytesPerActivate::512-575            1      0.42%     99.58% # Bytes accessed per row activation
system.mem_ctrls.dram.bytesPerActivate::640-703            1      0.42%    100.00% # Bytes accessed per row activation
system.mem_ctrls.dram.bytesPerActivate::total          237                       # Bytes accessed per row activation
system.mem_ctrls.dram.bytesRead                 35392                       # Total number of bytes read from DRAM
system.mem_ctrls.dram.bytesWritten               2304                       # Total number of bytes written to DRAM
system.mem_ctrls.dram.avgRdBW               56.123614                       # Average DRAM read bandwidth in MiBytes/s
system.mem_ctrls.dram.avgWrBW                3.653617                       # Average DRAM write bandwidth in MiBytes/s
system.mem_ctrls.dram.peakBW                 12800.00                       # Theoretical peak bandwidth in MiByte/s
system.mem_ctrls.dram.busUtil                    0.47                       # Data bus utilization in percentage
system.mem_ctrls.dram.busUtilRead                0.44                       # Data bus utilization in percentage for reads
system.mem_ctrls.dram.busUtilWrite               0.03                       # Data bus utilization in percentage for writes
system.mem_ctrls.dram.pageHitRate               59.08                       # Row buffer hit rate, read and write combined
system.mem_ctrls.dram.power_state.pwrStateResidencyTicks::UNDEFINED    630608000                       # Cumulative time (in ticks) in various power states
system.mem_ctrls.dram.rank0.actEnergy          992460                       # Energy for activate commands per rank (pJ)
system.mem_ctrls.dram.rank0.preEnergy          516120                       # Energy for precharge commands per rank (pJ)
system.mem_ctrls.dram.rank0.readEnergy        2449020                       # Energy for read commands per rank (pJ)
system.mem_ctrls.dram.rank0.writeEnergy        125280                       # Energy for write commands per rank (pJ)
system.mem_ctrls.dram.rank0.refreshEnergy 49171200.000000                       # Energy for refresh commands per rank (pJ)
system.mem_ctrls.dram.rank0.actBackEnergy    235042920                       # Energy for active background per rank (pJ)
system.mem_ctrls.dram.rank0.preBackEnergy     44222880                       # Energy for precharge background per rank (pJ)
system.mem_ctrls.dram.rank0.actPowerDownEnergy            0                       # Energy for active power-down per rank (pJ)
system.mem_ctrls.dram.rank0.prePowerDownEnergy            0                       # Energy for precharge power-down per rank (pJ)
system.mem_ctrls.dram.rank0.selfRefreshEnergy            0                       # Energy for self refresh per rank (pJ)
system.mem_ctrls.dram.rank0.totalEnergy     332519880                       # Total energy per rank (pJ)
system.mem_ctrls.dram.rank0.averagePower   527.300447                       # Core power per rank (mW)
system.mem_ctrls.dram.rank0.totalIdleTime            0                       # Total Idle time Per DRAM Rank
system.mem_ctrls.dram.rank0.pwrStateTime::IDLE    112918750                       # Time in different power states
system.mem_ctrls.dram.rank0.pwrStateTime::REF     20800000                       # Time in different power states
system.mem_ctrls.dram.rank0.pwrStateTime::SREF            0                       # Time in different power states
system.mem_ctrls.dram.rank0.pwrStateTime::PRE_PDN            0                       # Time in different power states
system.mem_ctrls.dram.rank0.pwrStateTime::ACT    496889250                       # Time in different power states
system.mem_ctrls.dram.rank0.pwrStateTime::ACT_PDN            0                       # Time in different power states
system.mem_ctrls.dram.rank1.actEnergy          728280                       # Energy for activate commands per rank (pJ)
system.mem_ctrls.dram.rank1.preEnergy          383295                       # Energy for precharge commands per rank (pJ)
system.mem_ctrls.dram.rank1.readEnergy        1499400                       # Energy for read commands per rank (pJ)
system.mem_ctrls.dram.rank1.writeEnergy         62640                       # Energy for write commands per rank (pJ)
system.mem_ctrls.dram.rank1.refreshEnergy 49171200.000000                       # Energy for refresh commands per rank (pJ)
system.mem_ctrls.dram.rank1.actBackEnergy    171986670                       # Energy for active background per rank (pJ)
system.mem_ctrls.dram.rank1.preBackEnergy     97322880                       # Energy for precharge background per rank (pJ)
system.mem_ctrls.dram.rank1.actPowerDownEnergy            0                       # Energy for active power-down per rank (pJ)
system.mem_ctrls.dram.rank1.prePowerDownEnergy            0                       # Energy for precharge power-down per rank (pJ)
system.mem_ctrls.dram.rank1.selfRefreshEnergy            0                       # Energy for self refresh per rank (pJ)
system.mem_ctrls.dram.rank1.totalEnergy     321154365                       # Total energy per rank (pJ)
system.mem_ctrls.dram.rank1.averagePower   509.277340                       # Core power per rank (mW)
system.mem_ctrls.dram.rank1.totalIdleTime            0                       # Total Idle time Per DRAM Rank
system.mem_ctrls.dram.rank1.pwrStateTime::IDLE    251473750                       # Time in different power states
system.mem_ctrls.dram.rank1.pwrStateTime::REF     20800000                       # Time in different power states
system.mem_ctrls.dram.rank1.pwrStateTime::SREF            0                       # Time in different power states
system.mem_ctrls.dram.rank1.pwrStateTime::PRE_PDN            0                       # Time in different power states
system.mem_ctrls.dram.rank1.pwrStateTime::ACT    358334250                       # Time in different power states
system.mem_ctrls.dram.rank1.pwrStateTime::ACT_PDN            0                       # Time in different power states
system.mem_ctrls.power_state.pwrStateResidencyTicks::UNDEFINED    630608000                       # Cumulative time (in ticks) in various power states
system.membus.trans_dist::ReadResp                493                       # Transaction distribution
system.membus.trans_dist::WritebackClean           57                       # Transaction distribution
system.membus.trans_dist::ReadExReq                68                       # Transaction distribution
system.membus.trans_dist::ReadExResp               68                       # Transaction distribution
system.membus.trans_dist::ReadCleanReq            392                       # Transaction distribution
system.membus.trans_dist::ReadSharedReq           101                       # Transaction distribution
system.membus.pkt_count_system.cpu.icache.mem_side_port::system.mem_ctrls.port          841                       # Packet count per connected requestor and responder (bytes)
system.membus.pkt_count_system.cpu.dcache.mem_side_port::system.mem_ctrls.port          338                       # Packet count per connected requestor and responder (bytes)
system.membus.pkt_count::total                   1179                       # Packet count per connected requestor and responder (bytes)
system.membus.pkt_size_system.cpu.icache.mem_side_port::system.mem_ctrls.port        28736                       # Cumulative packet size per connected requestor and responder (bytes)
system.membus.pkt_size_system.cpu.dcache.mem_side_port::system.mem_ctrls.port        10816                       # Cumulative packet size per connected requestor and responder (bytes)
system.membus.pkt_size::total                   39552                       # Cumulative packet size per connected requestor and responder (bytes)
system.membus.snoops                                0                       # Total snoops (count)
system.membus.snoopTraffic                          0                       # Total snoop traffic (bytes)
system.membus.snoop_fanout::samples               561                       # Request fanout histogram
system.membus.snoop_fanout::mean             0.040998                       # Request fanout histogram
system.membus.snoop_fanout::stdev            0.198463                       # Request fanout histogram
system.membus.snoop_fanout::underflows              0      0.00%      0.00% # Request fanout histogram
system.membus.snoop_fanout::0                     538     95.90%     95.90% # Request fanout histogram
system.membus.snoop_fanout::1                      23      4.10%    100.00% # Request fanout histogram
system.membus.snoop_fanout::2                       0      0.00%    100.00% # Request fanout histogram
system.membus.snoop_fanout::overflows               0      0.00%    100.00% # Request fanout histogram
system.membus.snoop_fanout::min_value               0                       # Request fanout histogram
system.membus.snoop_fanout::max_value               1                       # Request fanout histogram
system.membus.snoop_fanout::total                 561                       # Request fanout histogram
system.membus.power_state.pwrStateResidencyTicks::UNDEFINED    630608000                       # Cumulative time (in ticks) in various power states
system.membus.reqLayer0.occupancy           128276500                       # Layer occupancy (ticks)
system.membus.reqLayer0.utilization              20.3                       # Layer utilization (%)
system.membus.respLayer1.occupancy          218264998                       # Layer occupancy (ticks)
system.membus.respLayer1.utilization             34.6                       # Layer utilization (%)
system.membus.respLayer2.occupancy           93239750                       # Layer occupancy (ticks)
system.membus.respLayer2.utilization             14.8                       # Layer utilization (%)
system.voltage_domain.voltage                       1                       # Voltage in Volts

---------- End Simulation Statistics   ----------
